
Note: No compatibility mode selected!


Circuit: * curvecraft mosfet id-vds dc sweep validation

Doing analysis at TEMP = 27.000000 and TNOM = 27.000000

Using SPARSE 1.3 as Direct Linear Solver

No. of Data Rows : 5
                 * curvecraft mosfet id-vds dc sweep validation
                 DC transfer characteristic  Sat Apr 25 15:17:45  2026
--------------------------------------------------------------------------------
Index   v-sweep         v(drain)        vds#branch      
--------------------------------------------------------------------------------
0	0.000000e+00	0.000000e+00	0.000000e+00	
1	5.000000e-01	5.000000e-01	-6.93312e-13	
2	1.000000e+00	1.000000e+00	-1.01000e-12	
3	1.500000e+00	1.500000e+00	-1.51000e-12	
4	2.000000e+00	2.000000e+00	-2.01000e-12	


Total analysis time (seconds) = 0.001311

Total elapsed time (seconds) = 0.018 

Total DRAM available = 24576.000 MB.
DRAM currently available =  121.391 MB.
Maximum ngspice program size =    9.688 MB.
Current ngspice program size =    9.688 MB.

