
Note: No compatibility mode selected!


Circuit: * curvecraft mosfet id-vgs dc sweep validation

Doing analysis at TEMP = 27.000000 and TNOM = 27.000000

Using SPARSE 1.3 as Direct Linear Solver

No. of Data Rows : 9
                 * curvecraft mosfet id-vgs dc sweep validation
                 DC transfer characteristic  Sat Apr 25 12:26:16  2026
--------------------------------------------------------------------------------
Index   v-sweep         v(gate)         vds#branch      
--------------------------------------------------------------------------------
0	0.000000e+00	0.000000e+00	-5.01000e-12	
1	5.000000e-01	5.000000e-01	-5.01000e-12	
2	1.000000e+00	1.000000e+00	-5.01000e-12	
3	1.500000e+00	1.500000e+00	-2.50000e-05	
4	2.000000e+00	2.000000e+00	-2.25000e-04	
5	2.500000e+00	2.500000e+00	-6.25000e-04	
6	3.000000e+00	3.000000e+00	-1.22500e-03	
7	3.500000e+00	3.500000e+00	-2.02500e-03	
8	4.000000e+00	4.000000e+00	-3.02500e-03	


Total analysis time (seconds) = 0.000434

Total elapsed time (seconds) = 0.003 

Total DRAM available = 24576.000 MB.
DRAM currently available =  745.875 MB.
Maximum ngspice program size =    9.672 MB.
Current ngspice program size =    9.672 MB.

