
Note: No compatibility mode selected!


Circuit: * curvecraft diode dc sweep validation

Doing analysis at TEMP = 27.000000 and TNOM = 27.000000

Using SPARSE 1.3 as Direct Linear Solver

No. of Data Rows : 6
                     * curvecraft diode dc sweep validation
                     DC transfer characteristic  Sat Apr 25 01:25:14  2026
--------------------------------------------------------------------------------
Index   v-sweep         v(anode)        vin#branch      
--------------------------------------------------------------------------------
0	0.000000e+00	0.000000e+00	7.107248e-40	
1	1.000000e-01	1.000000e-01	-1.10893e-09	
2	2.000000e-01	2.000000e-01	-1.05998e-08	
3	3.000000e-01	3.000000e-01	-1.02004e-07	
4	4.000000e-01	4.000000e-01	-9.97226e-07	
5	5.000000e-01	5.000000e-01	-9.74350e-06	


Total analysis time (seconds) = 0.000409

Total elapsed time (seconds) = 0.004 

Total DRAM available = 24576.000 MB.
DRAM currently available =  541.703 MB.
Maximum ngspice program size =    9.656 MB.
Current ngspice program size =    9.656 MB.

